<?xml version="1.0" encoding="UTF-8"?>

<!-- generated on 2024-03-17 08:58:15 by Eclipse SUMO netedit Version 1.19.0
-->

<routes xmlns:xsi="http://www.w3.org/2001/XMLSchema-instance" xsi:noNamespaceSchemaLocation="http://sumo.dlr.de/xsd/routes_file.xsd">
    <!-- Routes -->
    <vType id="type1" accel="1.0" decel="4.5" maxSpeed="55.55"></vType>
    <!-- <trip id="t1" depart="10" from="-Jstart" to="E4"/>
    <trip id="t2" depart="10" from="-Jstart" to="E4"/>
    <trip id="t3" depart="10" from="-Jstart" to="E4"/>
    <trip id="t4" depart="10" from="-Jstart" to="E4"/>
    <trip id="t5" depart="10" from="-Jstart" to="E4"/>
    <trip id="t6" depart="10" from="-Jstart" to="E4"/> -->
    
    <!-- defining the flow of starting vehicles travelling from Jstart to end -->
    <flow id="start-end-car-flow" color="red" begin="10" end="300" number="250" from="-Estart" to="Eend"></flow>

        <!-- defining the flow of starting vehicles travelling from topwest to end -->
    <flow id="northwest-end-car-flow" color="blue" begin="10" end="300" number="50" from="-E6" to="Eend"></flow>


    <!-- defining the flow of starting vehicles travelling from west to end -->
    <route id="J3-to-Jend" edges="-E2 E1 Eend"></route>
    <flow id="west-end-car-flow" color="magenta" begin="10" end="300" number="150" route="J3-to-Jend"></flow>
</routes>
