<?xml version="1.0" encoding="UTF-8"?>

<!-- generated on 2024-03-17 15:43:26 by Eclipse SUMO netedit Version 1.19.0
<configuration xmlns:xsi="http://www.w3.org/2001/XMLSchema-instance" xsi:noNamespaceSchemaLocation="http://sumo.dlr.de/xsd/neteditConfiguration.xsd">

    <input>
        <sumo-net-file value="C:\Users\yuhao\Desktop\test2.net.xml"/>
    </input>

    <output>
        <output-file value="C:\Users\yuhao\Desktop\test2.net.xml"/>
        <output.street-names value="true"/>
    </output>

    <processing>
        <geometry.min-radius.fix.railways value="false"/>
        <geometry.max-grade.fix value="false"/>
        <offset.disable-normalization value="true"/>
        <lefthand value="0"/>
    </processing>

    <junctions>
        <no-turnarounds value="true"/>
        <junctions.corner-detail value="5"/>
        <junctions.limit-turn-speed value="5.50"/>
        <rectangular-lane-cut value="0"/>
    </junctions>

    <pedestrian>
        <walkingareas value="0"/>
    </pedestrian>

</configuration>
-->

<net version="1.16" junctionCornerDetail="5" limitTurnSpeed="5.50" xmlns:xsi="http://www.w3.org/2001/XMLSchema-instance" xsi:noNamespaceSchemaLocation="http://sumo.dlr.de/xsd/net_file.xsd">

    <location netOffset="0.00,0.00" convBoundary="-6.69,15.58,96.29,119.23" origBoundary="-10000000000.00,-10000000000.00,10000000000.00,10000000000.00" projParameter="!"/>

    <edge id=":J0_0" function="internal">
        <lane id=":J0_0_0" index="0" speed="6.57" length="9.18" shape="28.93,82.71 26.46,83.07 24.69,84.14 23.63,85.93 23.26,88.43"/>
    </edge>
    <edge id=":J0_1" function="internal">
        <lane id=":J0_1_0" index="0" speed="13.89" length="20.87" shape="28.93,82.71 8.07,82.78"/>
        <lane id=":J0_1_1" index="1" speed="13.89" length="20.87" shape="28.93,79.51 8.05,79.58"/>
    </edge>
    <edge id=":J0_3" function="internal">
        <lane id=":J0_3_0" index="0" speed="9.26" length="4.90" shape="28.93,79.51 24.08,78.82"/>
    </edge>
    <edge id=":J0_16" function="internal">
        <lane id=":J0_16_0" index="0" speed="9.26" length="14.45" shape="24.08,78.82 23.68,78.76 19.93,76.51 17.68,72.76 16.93,67.51"/>
    </edge>
    <edge id=":J0_4" function="internal">
        <lane id=":J0_4_0" index="0" speed="6.51" length="9.03" shape="23.33,67.51 23.68,69.96 24.73,71.71 26.48,72.76 28.93,73.11"/>
    </edge>
    <edge id=":J0_5" function="internal">
        <lane id=":J0_5_0" index="0" speed="13.89" length="20.91" shape="23.33,67.51 23.26,88.43"/>
        <lane id=":J0_5_1" index="1" speed="13.89" length="20.91" shape="20.13,67.51 20.06,88.41"/>
    </edge>
    <edge id=":J0_7" function="internal">
        <lane id=":J0_7_0" index="0" speed="9.30" length="5.11" shape="20.13,67.51 19.40,72.57"/>
    </edge>
    <edge id=":J0_17" function="internal">
        <lane id=":J0_17_0" index="0" speed="9.30" length="14.34" shape="19.40,72.57 19.38,72.76 17.11,76.52 13.34,78.80 8.05,79.58"/>
    </edge>
    <edge id=":J0_8" function="internal">
        <lane id=":J0_8_0" index="0" speed="6.57" length="9.17" shape="8.01,73.18 10.51,72.81 12.30,71.74 13.37,69.98 13.73,67.51"/>
    </edge>
    <edge id=":J0_9" function="internal">
        <lane id=":J0_9_0" index="0" speed="13.89" length="20.91" shape="8.01,73.18 28.93,73.11"/>
        <lane id=":J0_9_1" index="1" speed="13.89" length="20.91" shape="8.03,76.38 28.93,76.31"/>
    </edge>
    <edge id=":J0_11" function="internal">
        <lane id=":J0_11_0" index="0" speed="9.24" length="5.12" shape="8.03,76.38 13.10,77.07"/>
    </edge>
    <edge id=":J0_18" function="internal">
        <lane id=":J0_18_0" index="0" speed="9.24" length="14.34" shape="13.10,77.07 13.32,77.10 17.09,79.35 19.34,83.12 20.06,88.41"/>
    </edge>
    <edge id=":J0_12" function="internal">
        <lane id=":J0_12_0" index="0" speed="6.48" length="9.03" shape="13.66,88.36 13.32,85.91 12.28,84.16 10.53,83.11 8.07,82.78"/>
    </edge>
    <edge id=":J0_13" function="internal">
        <lane id=":J0_13_0" index="0" speed="13.89" length="20.87" shape="13.66,88.36 13.73,67.51"/>
        <lane id=":J0_13_1" index="1" speed="13.89" length="20.87" shape="16.86,88.39 16.93,67.51"/>
    </edge>
    <edge id=":J0_15" function="internal">
        <lane id=":J0_15_0" index="0" speed="9.30" length="4.93" shape="16.86,88.39 17.58,83.51"/>
    </edge>
    <edge id=":J0_19" function="internal">
        <lane id=":J0_19_0" index="0" speed="9.30" length="14.51" shape="17.58,83.51 17.64,83.10 19.92,79.33 23.68,77.06 28.93,76.31"/>
    </edge>
    <edge id=":J1_0" function="internal">
        <lane id=":J1_0_0" index="0" speed="6.52" length="9.08" shape="13.73,48.71 13.38,46.25 12.33,44.48 10.57,43.42 8.11,43.07"/>
    </edge>
    <edge id=":J1_1" function="internal">
        <lane id=":J1_1_0" index="0" speed="13.89" length="24.03" shape="13.73,48.71 13.73,24.69"/>
        <lane id=":J1_1_1" index="1" speed="13.89" length="24.03" shape="16.93,48.71 16.93,24.69"/>
    </edge>
    <edge id=":J1_3" function="internal">
        <lane id=":J1_3_0" index="0" speed="9.25" length="5.01" shape="16.93,48.71 17.64,43.75"/>
    </edge>
    <edge id=":J1_16" function="internal">
        <lane id=":J1_16_0" index="0" speed="9.25" length="14.38" shape="17.64,43.75 17.68,43.45 19.94,39.70 23.70,37.46 28.97,36.74"/>
    </edge>
    <edge id=":J1_4" function="internal">
        <lane id=":J1_4_0" index="0" speed="6.50" length="9.03" shape="28.94,43.14 26.48,43.47 24.73,44.52 23.68,46.26 23.33,48.71"/>
    </edge>
    <edge id=":J1_5" function="internal">
        <lane id=":J1_5_0" index="0" speed="13.89" length="20.83" shape="28.94,43.14 8.11,43.07"/>
        <lane id=":J1_5_1" index="1" speed="13.89" length="20.83" shape="28.96,39.94 8.12,39.87"/>
    </edge>
    <edge id=":J1_7" function="internal">
        <lane id=":J1_7_0" index="0" speed="9.87" length="5.51" shape="28.96,39.94 23.69,38.96 23.57,38.86"/>
    </edge>
    <edge id=":J1_17" function="internal">
        <lane id=":J1_17_0" index="0" speed="9.87" length="16.52" shape="23.57,38.86 19.94,36.09 17.68,31.33 16.93,24.69"/>
    </edge>
    <edge id=":J1_8" function="internal">
        <lane id=":J1_8_0" index="0" speed="7.36" length="11.80" shape="23.33,24.69 23.68,28.55 24.74,31.31 26.51,32.97 28.99,33.54"/>
    </edge>
    <edge id=":J1_9" function="internal">
        <lane id=":J1_9_0" index="0" speed="13.89" length="24.03" shape="23.33,24.69 23.33,48.71"/>
        <lane id=":J1_9_1" index="1" speed="13.89" length="24.03" shape="20.13,24.69 20.13,48.71"/>
    </edge>
    <edge id=":J1_11" function="internal">
        <lane id=":J1_11_0" index="0" speed="9.84" length="6.29" shape="20.13,24.69 19.42,30.93"/>
    </edge>
    <edge id=":J1_18" function="internal">
        <lane id=":J1_18_0" index="0" speed="9.84" length="15.70" shape="19.42,30.93 19.38,31.33 17.13,36.08 13.37,38.92 8.12,39.87"/>
    </edge>
    <edge id=":J1_12" function="internal">
        <lane id=":J1_12_0" index="0" speed="6.51" length="9.03" shape="8.13,30.29 10.58,29.94 12.33,28.89 13.38,27.14 13.73,24.69"/>
    </edge>
    <edge id=":J1_13" function="internal">
        <lane id=":J1_13_0" index="0" speed="13.89" length="21.18" shape="8.13,30.29 14.20,30.79 18.56,31.89 22.92,33.00 28.99,33.54"/>
        <lane id=":J1_13_1" index="1" speed="13.89" length="21.18" shape="8.12,33.49 14.19,33.99 18.55,35.09 22.90,36.20 28.97,36.74"/>
    </edge>
    <edge id=":J1_15" function="internal">
        <lane id=":J1_15_0" index="0" speed="9.84" length="9.86" shape="8.12,33.49 13.38,34.44 16.98,37.18"/>
    </edge>
    <edge id=":J1_19" function="internal">
        <lane id=":J1_19_0" index="0" speed="9.84" length="12.16" shape="16.98,37.18 17.13,37.29 19.38,42.05 20.13,48.71"/>
    </edge>
    <edge id=":J2_0" function="internal">
        <lane id=":J2_0_0" index="0" speed="6.65" length="9.33" shape="85.37,43.23 82.83,43.63 81.01,44.72 79.92,46.52 79.54,49.02"/>
    </edge>
    <edge id=":J2_1" function="internal">
        <lane id=":J2_1_0" index="0" speed="13.89" length="20.98" shape="85.37,43.23 64.35,43.32"/>
        <lane id=":J2_1_1" index="1" speed="13.89" length="20.98" shape="85.32,40.03 64.37,40.12"/>
    </edge>
    <edge id=":J2_3" function="internal">
        <lane id=":J2_3_0" index="0" speed="9.24" length="5.21" shape="85.32,40.03 80.15,39.37"/>
    </edge>
    <edge id=":J2_16" function="internal">
        <lane id=":J2_16_0" index="0" speed="9.24" length="14.25" shape="80.15,39.37 80.02,39.35 76.24,37.13 73.97,33.38 73.21,28.09"/>
    </edge>
    <edge id=":J2_4" function="internal">
        <lane id=":J2_4_0" index="0" speed="6.48" length="9.03" shape="79.61,28.09 79.96,30.54 81.02,32.29 82.77,33.32 85.23,33.63"/>
    </edge>
    <edge id=":J2_5" function="internal">
        <lane id=":J2_5_0" index="0" speed="13.89" length="20.92" shape="79.61,28.09 79.54,49.02"/>
        <lane id=":J2_5_1" index="1" speed="13.89" length="20.92" shape="76.41,28.09 76.34,49.00"/>
    </edge>
    <edge id=":J2_7" function="internal">
        <lane id=":J2_7_0" index="0" speed="9.26" length="5.15" shape="76.41,28.09 75.68,33.19"/>
    </edge>
    <edge id=":J2_17" function="internal">
        <lane id=":J2_17_0" index="0" speed="9.26" length="14.28" shape="75.68,33.19 75.66,33.38 73.40,37.15 69.64,39.40 64.37,40.12"/>
    </edge>
    <edge id=":J2_8" function="internal">
        <lane id=":J2_8_0" index="0" speed="6.51" length="9.08" shape="64.40,33.72 66.86,33.38 68.61,32.33 69.66,30.57 70.01,28.09"/>
    </edge>
    <edge id=":J2_9" function="internal">
        <lane id=":J2_9_0" index="0" speed="13.89" length="20.86" shape="64.40,33.72 85.23,33.63"/>
        <lane id=":J2_9_1" index="1" speed="13.89" length="20.86" shape="64.38,36.92 85.28,36.83"/>
    </edge>
    <edge id=":J2_11" function="internal">
        <lane id=":J2_11_0" index="0" speed="9.26" length="4.71" shape="64.38,36.92 69.04,37.61"/>
    </edge>
    <edge id=":J2_18" function="internal">
        <lane id=":J2_18_0" index="0" speed="9.26" length="14.67" shape="69.04,37.61 69.65,37.70 73.39,39.98 75.62,43.74 76.34,49.00"/>
    </edge>
    <edge id=":J2_12" function="internal">
        <lane id=":J2_12_0" index="0" speed="6.51" length="9.05" shape="69.94,48.96 69.60,46.50 68.56,44.75 66.81,43.69 64.35,43.32"/>
    </edge>
    <edge id=":J2_13" function="internal">
        <lane id=":J2_13_0" index="0" speed="13.89" length="20.88" shape="69.94,48.96 70.01,28.09"/>
        <lane id=":J2_13_1" index="1" speed="13.89" length="20.88" shape="73.14,48.98 73.21,28.09"/>
    </edge>
    <edge id=":J2_15" function="internal">
        <lane id=":J2_15_0" index="0" speed="9.36" length="4.88" shape="73.14,48.98 73.86,44.15"/>
    </edge>
    <edge id=":J2_19" function="internal">
        <lane id=":J2_19_0" index="0" speed="9.36" length="14.61" shape="73.86,44.15 73.93,43.73 76.21,39.95 80.00,37.66 85.28,36.83"/>
    </edge>
    <edge id=":J8_0" function="internal">
        <lane id=":J8_0_0" index="0" speed="12.78" length="4.15" shape="42.23,81.69 40.92,82.27 39.98,82.57 38.99,82.69 37.57,82.71"/>
        <lane id=":J8_0_1" index="1" speed="10.86" length="4.15" shape="40.89,78.78 39.96,79.20 39.29,79.41 38.59,79.50 37.57,79.51"/>
    </edge>
    <edge id=":J8_2" function="internal">
        <lane id=":J8_2_0" index="0" speed="13.89" length="1.38" shape="37.57,73.11 37.77,73.11 37.91,73.09 38.04,73.05 38.23,72.96"/>
        <lane id=":J8_2_1" index="1" speed="8.52" length="1.38" shape="37.57,76.31 38.18,76.30 38.60,76.25 39.00,76.12 39.56,75.87"/>
    </edge>
    <edge id=":J9_0" function="internal">
        <lane id=":J9_0_0" index="0" speed="3.99" length="1.82" shape="68.94,58.91 69.35,58.66 69.64,58.34 69.82,57.94 69.88,57.47"/>
        <lane id=":J9_0_1" index="1" speed="6.23" length="5.47" shape="70.28,61.82 71.49,61.07 72.37,60.10 72.90,58.91 73.08,57.49"/>
    </edge>
    <edge id=":Ja_0" function="internal">
        <lane id=":Ja_0_0" index="0" speed="13.89" length="0.29" shape="23.18,98.82 23.18,99.11"/>
        <lane id=":Ja_0_1" index="1" speed="13.89" length="0.29" shape="19.98,98.80 19.98,99.10"/>
    </edge>
    <edge id=":Ja_2" function="internal">
        <lane id=":Ja_2_0" index="0" speed="13.89" length="0.31" shape="13.58,99.07 13.58,98.76"/>
        <lane id=":Ja_2_1" index="1" speed="13.89" length="0.31" shape="16.78,99.08 16.78,98.78"/>
    </edge>

    <edge id="-E0" from="J1" to="J0" priority="-1">
        <lane id="-E0_0" index="0" speed="13.89" length="18.80" shape="23.33,48.71 23.33,67.51"/>
        <lane id="-E0_1" index="1" speed="13.89" length="18.80" shape="20.13,48.71 20.13,67.51"/>
    </edge>
    <edge id="-E1" from="J2" to="J1" priority="-1">
        <lane id="-E1_0" index="0" speed="13.89" length="35.41" shape="64.35,43.32 28.94,43.14"/>
        <lane id="-E1_1" index="1" speed="13.89" length="35.41" shape="64.37,40.12 28.96,39.94"/>
    </edge>
    <edge id="-E10" from="J11" to="J2" priority="-1">
        <lane id="-E10_0" index="0" speed="13.89" length="11.90" shape="79.61,16.19 79.61,28.09"/>
        <lane id="-E10_1" index="1" speed="13.89" length="11.90" shape="76.41,16.19 76.41,28.09"/>
    </edge>
    <edge id="-E2" from="J3" to="J1" name="west2" priority="-1" shape="-6.69,35.11 18.53,35.08">
        <lane id="-E2_0" index="0" speed="13.89" length="14.41" shape="-6.29,30.31 8.13,30.29"/>
        <lane id="-E2_1" index="1" speed="13.89" length="14.41" shape="-6.28,33.51 8.12,33.49"/>
    </edge>
    <edge id="-E3" from="J9" to="J2" priority="-1">
        <lane id="-E3_0" index="0" speed="13.89" length="8.51" shape="69.88,57.47 69.94,48.96"/>
        <lane id="-E3_1" index="1" speed="13.89" length="8.51" shape="73.08,57.49 73.14,48.98"/>
    </edge>
    <edge id="-E4" from="Jend" to="J2" priority="-1">
        <lane id="-E4_0" index="0" speed="13.89" length="10.99" shape="96.36,43.08 85.37,43.23"/>
        <lane id="-E4_1" index="1" speed="13.89" length="10.99" shape="96.31,39.88 85.32,40.03"/>
    </edge>
    <edge id="-E5" from="Ja" to="J0" priority="-1">
        <lane id="-E5_0" index="0" speed="13.89" length="10.39" shape="13.58,98.76 13.66,88.36"/>
        <lane id="-E5_1" index="1" speed="13.89" length="10.39" shape="16.78,98.78 16.86,88.39"/>
    </edge>
    <edge id="-E6" from="J7" to="J0" priority="-1">
        <lane id="-E6_0" index="0" speed="13.89" length="12.05" shape="-4.04,73.26 8.01,73.18"/>
        <lane id="-E6_1" index="1" speed="13.89" length="12.05" shape="-4.02,76.46 8.03,76.38"/>
    </edge>
    <edge id="-E7" from="J8" to="J0" priority="-1">
        <lane id="-E7_0" index="0" speed="13.89" length="8.64" shape="37.57,82.71 28.93,82.71"/>
        <lane id="-E7_1" index="1" speed="13.89" length="8.64" shape="37.57,79.51 28.93,79.51"/>
    </edge>
    <edge id="-E8" from="J9" to="J8" priority="-1">
        <lane id="-E8_0" index="0" speed="13.89" length="33.78" shape="72.94,67.64 42.23,81.69"/>
        <lane id="-E8_1" index="1" speed="13.89" length="33.78" shape="71.61,64.73 40.89,78.78"/>
    </edge>
    <edge id="-E9" from="J10" to="J1" priority="-1">
        <lane id="-E9_0" index="0" speed="13.89" length="9.11" shape="23.33,15.58 23.33,24.69"/>
        <lane id="-E9_1" index="1" speed="13.89" length="9.11" shape="20.13,15.58 20.13,24.69"/>
    </edge>
    <edge id="-Estart" from="Jstart" to="Ja" priority="-1">
        <lane id="-Estart_0" index="0" speed="13.89" length="20.14" shape="13.51,119.21 13.58,99.07"/>
        <lane id="-Estart_1" index="1" speed="13.89" length="20.14" shape="16.71,119.23 16.78,99.08"/>
    </edge>
    <edge id="E0" from="J0" to="J1" priority="-1">
        <lane id="E0_0" index="0" speed="13.89" length="18.80" shape="13.73,67.51 13.73,48.71"/>
        <lane id="E0_1" index="1" speed="13.89" length="18.80" shape="16.93,67.51 16.93,48.71"/>
    </edge>
    <edge id="E1" from="J1" to="J2" name="middle2" priority="-1">
        <lane id="E1_0" index="0" speed="13.89" length="35.41" shape="28.99,33.54 64.40,33.72"/>
        <lane id="E1_1" index="1" speed="13.89" length="35.41" shape="28.97,36.74 64.38,36.92"/>
    </edge>
    <edge id="E10" from="J2" to="J11" priority="-1">
        <lane id="E10_0" index="0" speed="13.89" length="11.90" shape="70.01,28.09 70.01,16.19"/>
        <lane id="E10_1" index="1" speed="13.89" length="11.90" shape="73.21,28.09 73.21,16.19"/>
    </edge>
    <edge id="E2" from="J1" to="J3" priority="-1" spreadType="center" shape="18.53,41.48 -6.69,41.45">
        <lane id="E2_0" index="0" speed="13.89" length="14.40" shape="8.11,43.07 -6.28,43.05"/>
        <lane id="E2_1" index="1" speed="13.89" length="14.40" shape="8.12,39.87 -6.28,39.85"/>
    </edge>
    <edge id="E3" from="J2" to="J9" priority="-1">
        <lane id="E3_0" index="0" speed="13.89" length="8.51" shape="79.54,49.02 79.48,57.54"/>
        <lane id="E3_1" index="1" speed="13.89" length="8.51" shape="76.34,49.00 76.28,57.51"/>
    </edge>
    <edge id="E5" from="J0" to="Ja" priority="-1">
        <lane id="E5_0" index="0" speed="13.89" length="10.39" shape="23.26,88.43 23.18,98.82"/>
        <lane id="E5_1" index="1" speed="13.89" length="10.39" shape="20.06,88.41 19.98,98.80"/>
    </edge>
    <edge id="E6" from="J0" to="J7" priority="-1">
        <lane id="E6_0" index="0" speed="13.89" length="12.05" shape="8.07,82.78 -3.98,82.86"/>
        <lane id="E6_1" index="1" speed="13.89" length="12.05" shape="8.05,79.58 -4.00,79.66"/>
    </edge>
    <edge id="E7" from="J0" to="J8" priority="-1">
        <lane id="E7_0" index="0" speed="13.89" length="8.64" shape="28.93,73.11 37.57,73.11"/>
        <lane id="E7_1" index="1" speed="13.89" length="8.64" shape="28.93,76.31 37.57,76.31"/>
    </edge>
    <edge id="E8" from="J8" to="J9" priority="-1">
        <lane id="E8_0" index="0" speed="13.89" length="33.78" shape="38.23,72.96 68.94,58.91"/>
        <lane id="E8_1" index="1" speed="13.89" length="33.78" shape="39.56,75.87 70.28,61.82"/>
    </edge>
    <edge id="E9" from="J1" to="J10" priority="-1">
        <lane id="E9_0" index="0" speed="13.89" length="9.11" shape="13.73,24.69 13.73,15.58"/>
        <lane id="E9_1" index="1" speed="13.89" length="9.11" shape="16.93,24.69 16.93,15.58"/>
    </edge>
    <edge id="Eend" from="J2" to="Jend" name="east2" priority="-1">
        <lane id="Eend_0" index="0" speed="13.89" length="10.99" shape="85.23,33.63 96.22,33.48"/>
        <lane id="Eend_1" index="1" speed="13.89" length="10.99" shape="85.28,36.83 96.27,36.68"/>
    </edge>
    <edge id="Estart" from="Ja" to="Jstart" priority="-1">
        <lane id="Estart_0" index="0" speed="13.89" length="20.14" shape="23.18,99.11 23.11,119.25"/>
        <lane id="Estart_1" index="1" speed="13.89" length="20.14" shape="19.98,99.10 19.91,119.24"/>
    </edge>

    <tlLogic id="J0" type="actuated" programID="0" offset="0">
        <phase duration="42" state="GGGgrrrrGGGgrrrr" minDur="5" maxDur="50"/>
        <phase duration="3"  state="yyyyrrrryyyyrrrr"/>
        <phase duration="42" state="rrrrGGGgrrrrGGGg" minDur="5" maxDur="50"/>
        <phase duration="3"  state="rrrryyyyrrrryyyy"/>
    </tlLogic>
    <tlLogic id="J0" type="actuated" programID="1" offset="0">
        <phase duration="42" state="GGGgrrrrGGGgrrrr" minDur="5" maxDur="50"/>
        <phase duration="3"  state="yyyyrrrryyyyrrrr"/>
        <phase duration="42" state="rrrrGGGgrrrrGGGg" minDur="5" maxDur="50"/>
        <phase duration="3"  state="rrrryyyyrrrryyyy"/>
    </tlLogic>
    <tlLogic id="J1" type="actuated" programID="0" offset="0">
        <phase duration="42" state="GGGgrrrrGGGgrrrr" minDur="5" maxDur="50"/>
        <phase duration="3"  state="yyyyrrrryyyyrrrr"/>
        <phase duration="42" state="rrrrGGGgrrrrGGGg" minDur="5" maxDur="50"/>
        <phase duration="3"  state="rrrryyyyrrrryyyy"/>
    </tlLogic>
    <tlLogic id="J2" type="static" programID="0" offset="0">
        <phase duration="42" state="rrrrGGGgrrrrGGGg"/>
        <phase duration="3"  state="rrrryyyyrrrryyyy"/>
        <phase duration="42" state="GGGgrrrrGGGgrrrr"/>
        <phase duration="3"  state="yyyyrrrryyyyrrrr"/>
    </tlLogic>

    <junction id="J0" type="traffic_light" x="18.53" y="77.91" incLanes="-E7_0 -E7_1 -E0_0 -E0_1 -E6_0 -E6_1 -E5_0 -E5_1" intLanes=":J0_0_0 :J0_1_0 :J0_1_1 :J0_16_0 :J0_4_0 :J0_5_0 :J0_5_1 :J0_17_0 :J0_8_0 :J0_9_0 :J0_9_1 :J0_18_0 :J0_12_0 :J0_13_0 :J0_13_1 :J0_19_0" shape="28.93,84.31 28.93,71.51 26.71,71.07 25.93,70.51 25.37,69.73 25.04,68.73 24.93,67.51 12.13,67.51 11.67,69.76 11.10,70.55 10.29,71.12 9.26,71.46 8.00,71.58 8.08,84.38 10.30,84.81 11.08,85.36 11.63,86.13 11.95,87.13 12.06,88.35 24.86,88.44 25.32,86.15 25.89,85.34 26.68,84.77 27.69,84.42">
        <request index="0"  response="0000000000000000" foes="0000000001100000" cont="0"/>
        <request index="1"  response="1000000010000000" foes="1111100011100000" cont="0"/>
        <request index="2"  response="1000000010000000" foes="1111100011100000" cont="0"/>
        <request index="3"  response="1000011010000000" foes="1110011011100000" cont="1"/>
        <request index="4"  response="0000011000000000" foes="0000011000000000" cont="0"/>
        <request index="5"  response="0000111000001111" foes="1000111000001111" cont="0"/>
        <request index="6"  response="0000111000001111" foes="1000111000001111" cont="0"/>
        <request index="7"  response="0110111000001110" foes="0110111000001110" cont="1"/>
        <request index="8"  response="0000000000000000" foes="0110000000000000" cont="0"/>
        <request index="9"  response="1000000010000000" foes="1110000011111000" cont="0"/>
        <request index="10" response="1000000010000000" foes="1110000011111000" cont="0"/>
        <request index="11" response="1000000010000110" foes="1110000011100110" cont="1"/>
        <request index="12" response="0000000000000110" foes="0000000000000110" cont="0"/>
        <request index="13" response="0000111100001110" foes="0000111110001110" cont="0"/>
        <request index="14" response="0000111100001110" foes="0000111110001110" cont="0"/>
        <request index="15" response="0000111001101110" foes="0000111001101110" cont="1"/>
    </junction>
    <junction id="J1" type="traffic_light" x="18.53" y="38.28" incLanes="E0_0 E0_1 -E1_0 -E1_1 -E9_0 -E9_1 -E2_0 -E2_1" intLanes=":J1_0_0 :J1_1_0 :J1_1_1 :J1_16_0 :J1_4_0 :J1_5_0 :J1_5_1 :J1_17_0 :J1_8_0 :J1_9_0 :J1_9_1 :J1_18_0 :J1_12_0 :J1_13_0 :J1_13_1 :J1_19_0" shape="12.13,48.71 24.93,48.71 25.37,46.49 25.93,45.72 26.71,45.17 27.71,44.84 28.93,44.74 29.00,31.94 26.74,31.12 25.95,30.11 25.38,28.70 25.04,26.90 24.93,24.69 12.13,24.69 11.69,26.91 11.13,27.69 10.35,28.24 9.35,28.58 8.13,28.69 8.11,44.67 10.34,45.12 11.13,45.68 11.68,46.47 12.02,47.48">
        <request index="0"  response="0000000000000000" foes="0000000001100000" cont="0"/>
        <request index="1"  response="1000000010000000" foes="1111100011100000" cont="0"/>
        <request index="2"  response="1000000010000000" foes="1111100011100000" cont="0"/>
        <request index="3"  response="1000011010000000" foes="1110011011100000" cont="1"/>
        <request index="4"  response="0000011000000000" foes="0000011000000000" cont="0"/>
        <request index="5"  response="0000111000001111" foes="1000111000001111" cont="0"/>
        <request index="6"  response="0000111000001111" foes="1000111000001111" cont="0"/>
        <request index="7"  response="0110111000001110" foes="0110111000001110" cont="1"/>
        <request index="8"  response="0000000000000000" foes="0110000000000000" cont="0"/>
        <request index="9"  response="1000000010000000" foes="1110000011111000" cont="0"/>
        <request index="10" response="1000000010000000" foes="1110000011111000" cont="0"/>
        <request index="11" response="1000000010000110" foes="1110000011100110" cont="1"/>
        <request index="12" response="0000000000000110" foes="0000000000000110" cont="0"/>
        <request index="13" response="0000111100001110" foes="0000111110001110" cont="0"/>
        <request index="14" response="0000111100001110" foes="0000111110001110" cont="0"/>
        <request index="15" response="0000111001101110" foes="0000111001101110" cont="1"/>
    </junction>
    <junction id="J10" type="dead_end" x="18.53" y="15.58" incLanes="E9_0 E9_1" intLanes="" shape="18.53,15.58 12.13,15.58 18.53,15.58"/>
    <junction id="J11" type="dead_end" x="74.81" y="16.19" incLanes="E10_0 E10_1" intLanes="" shape="74.81,16.19 68.41,16.19 74.81,16.19"/>
    <junction id="J2" type="traffic_light" x="74.81" y="38.58" incLanes="-E4_0 -E4_1 -E10_0 -E10_1 E1_0 E1_1 -E3_0 -E3_1" intLanes=":J2_0_0 :J2_1_0 :J2_1_1 :J2_16_0 :J2_4_0 :J2_5_0 :J2_5_1 :J2_17_0 :J2_8_0 :J2_9_0 :J2_9_1 :J2_18_0 :J2_12_0 :J2_13_0 :J2_13_1 :J2_19_0" shape="85.39,44.83 85.21,32.03 82.99,31.62 82.21,31.08 81.65,30.31 81.32,29.31 81.21,28.09 68.41,28.09 67.97,30.34 67.41,31.13 66.63,31.69 65.63,32.02 64.41,32.12 64.34,44.92 66.57,45.38 67.35,45.94 67.91,46.72 68.23,47.72 68.34,48.95 81.14,49.03 81.62,46.73 82.21,45.91 83.04,45.33 84.10,44.97">
        <request index="0"  response="0000000001100000" foes="0000000001100000" cont="0"/>
        <request index="1"  response="1111000011100000" foes="1111100011100000" cont="0"/>
        <request index="2"  response="1111000011100000" foes="1111100011100000" cont="0"/>
        <request index="3"  response="1110011011100000" foes="1110011011100000" cont="1"/>
        <request index="4"  response="0000000000000000" foes="0000011000000000" cont="0"/>
        <request index="5"  response="0000100000001000" foes="1000111000001111" cont="0"/>
        <request index="6"  response="0000100000001000" foes="1000111000001111" cont="0"/>
        <request index="7"  response="0110100000001000" foes="0110111000001110" cont="1"/>
        <request index="8"  response="0110000000000000" foes="0110000000000000" cont="0"/>
        <request index="9"  response="1110000011110000" foes="1110000011111000" cont="0"/>
        <request index="10" response="1110000011110000" foes="1110000011111000" cont="0"/>
        <request index="11" response="1110000011100110" foes="1110000011100110" cont="1"/>
        <request index="12" response="0000000000000000" foes="0000000000000110" cont="0"/>
        <request index="13" response="0000100000001000" foes="0000111110001110" cont="0"/>
        <request index="14" response="0000100000001000" foes="0000111110001110" cont="0"/>
        <request index="15" response="0000100001101000" foes="0000111001101110" cont="1"/>
    </junction>
    <junction id="J3" type="dead_end" x="-6.28" y="38.28" incLanes="E2_0 E2_1" intLanes="" shape="-6.29,28.71 -6.29,44.65 -6.28,38.25"/>
    <junction id="J7" type="dead_end" x="-4.01" y="78.06" incLanes="E6_0 E6_1" intLanes="" shape="-4.01,78.06 -3.97,84.46 -4.01,78.06"/>
    <junction id="J8" type="priority" x="38.96" y="77.91" incLanes="-E8_0 -E8_1 E7_0 E7_1" intLanes=":J8_0_0 :J8_0_1 :J8_2_0 :J8_2_1" shape="42.89,83.15 37.57,71.51 37.57,84.31 39.61,84.26 40.32,84.15 41.01,83.95 41.83,83.63">
        <request index="0" response="0000" foes="0000" cont="0"/>
        <request index="1" response="0000" foes="0000" cont="0"/>
        <request index="2" response="0000" foes="0000" cont="0"/>
        <request index="3" response="0000" foes="0000" cont="0"/>
    </junction>
    <junction id="J9" type="priority" x="74.65" y="61.58" incLanes="E3_0 E3_1 E8_0 E8_1" intLanes=":J9_0_0 :J9_0_1" shape="81.08,57.55 68.28,57.46 73.60,69.10 75.87,67.83 77.73,66.30 79.18,64.51 80.22,62.45 80.85,60.13">
        <request index="0" response="00" foes="00" cont="0"/>
        <request index="1" response="00" foes="00" cont="0"/>
    </junction>
    <junction id="Ja" type="priority" x="18.38" y="98.94" incLanes="E5_0 E5_1 -Estart_0 -Estart_1" intLanes=":Ja_0_0 :Ja_0_1 :Ja_2_0 :Ja_2_1" shape="24.78,98.84 11.98,98.74 11.98,99.07 24.78,99.11">
        <request index="0" response="0000" foes="0000" cont="0"/>
        <request index="1" response="0000" foes="0000" cont="0"/>
        <request index="2" response="0000" foes="0000" cont="0"/>
        <request index="3" response="0000" foes="0000" cont="0"/>
    </junction>
    <junction id="Jend" type="dead_end" x="96.29" y="38.28" incLanes="Eend_0 Eend_1" intLanes="" shape="96.29,38.28 96.20,31.88 96.29,38.28"/>
    <junction id="Jstart" type="dead_end" x="18.31" y="119.23" incLanes="Estart_0 Estart_1" intLanes="" shape="18.31,119.23 24.71,119.25 18.31,119.23"/>

    <junction id=":J0_16_0" type="internal" x="24.08" y="78.82" incLanes=":J0_3_0 -E6_0 -E6_1" intLanes=":J0_5_0 :J0_5_1 :J0_7_0 :J0_8_0 :J0_9_0 :J0_9_1 :J0_13_0 :J0_13_1 :J0_15_0"/>
    <junction id=":J0_17_0" type="internal" x="19.40" y="72.57" incLanes=":J0_7_0 -E5_0 -E5_1" intLanes=":J0_1_0 :J0_1_1 :J0_3_0 :J0_9_0 :J0_9_1 :J0_11_0 :J0_12_0 :J0_13_0 :J0_13_1"/>
    <junction id=":J0_18_0" type="internal" x="13.10" y="77.07" incLanes=":J0_11_0 -E7_0 -E7_1" intLanes=":J0_0_0 :J0_1_0 :J0_1_1 :J0_5_0 :J0_5_1 :J0_7_0 :J0_13_0 :J0_13_1 :J0_15_0"/>
    <junction id=":J0_19_0" type="internal" x="17.58" y="83.51" incLanes=":J0_15_0 -E0_0 -E0_1" intLanes=":J0_1_0 :J0_1_1 :J0_3_0 :J0_4_0 :J0_5_0 :J0_5_1 :J0_9_0 :J0_9_1 :J0_11_0"/>
    <junction id=":J1_16_0" type="internal" x="17.64" y="43.75" incLanes=":J1_3_0 -E9_0 -E9_1" intLanes=":J1_5_0 :J1_5_1 :J1_7_0 :J1_8_0 :J1_9_0 :J1_9_1 :J1_13_0 :J1_13_1 :J1_15_0"/>
    <junction id=":J1_17_0" type="internal" x="23.57" y="38.86" incLanes=":J1_7_0 -E2_0 -E2_1" intLanes=":J1_1_0 :J1_1_1 :J1_3_0 :J1_9_0 :J1_9_1 :J1_11_0 :J1_12_0 :J1_13_0 :J1_13_1"/>
    <junction id=":J1_18_0" type="internal" x="19.42" y="30.93" incLanes=":J1_11_0 E0_0 E0_1" intLanes=":J1_0_0 :J1_1_0 :J1_1_1 :J1_5_0 :J1_5_1 :J1_7_0 :J1_13_0 :J1_13_1 :J1_15_0"/>
    <junction id=":J1_19_0" type="internal" x="16.98" y="37.18" incLanes=":J1_15_0 -E1_0 -E1_1" intLanes=":J1_1_0 :J1_1_1 :J1_3_0 :J1_4_0 :J1_5_0 :J1_5_1 :J1_9_0 :J1_9_1 :J1_11_0"/>